Version 4
SHEET 1 880 680
WIRE 480 -144 192 -144
WIRE 480 -64 480 -144
WIRE 288 -32 48 -32
WIRE 192 112 192 -144
WIRE -128 128 -208 128
WIRE 48 128 48 -32
WIRE 48 128 -48 128
WIRE 160 128 48 128
WIRE 368 144 368 -32
WIRE 368 144 224 144
WIRE 480 144 480 16
WIRE 672 144 480 144
WIRE 160 160 48 160
WIRE 672 208 672 144
WIRE -208 224 -208 128
WIRE -208 240 -208 224
WIRE 480 256 480 144
WIRE -208 384 -208 304
WIRE 48 400 48 160
WIRE 192 416 192 176
WIRE 480 416 480 336
WIRE 480 416 192 416
FLAG 672 208 0
FLAG -208 384 0
FLAG 48 400 0
SYMBOL OpAmps\\OP747 192 80 R0
SYMATTR InstName U1
SYMBOL voltage 480 -80 R0
SYMATTR InstName V1
SYMATTR Value 50
SYMBOL voltage 480 240 R0
SYMATTR InstName V2
SYMATTR Value 50
SYMBOL res -32 112 R90
WINDOW 0 0 56 VBottom 2
WINDOW 3 32 56 VTop 2
SYMATTR InstName R1
SYMATTR Value 1k
SYMBOL res 384 -48 R90
WINDOW 0 0 56 VBottom 2
WINDOW 3 32 56 VTop 2
SYMATTR InstName R2
SYMATTR Value 10k
SYMBOL voltage -208 208 R0
WINDOW 123 24 124 Left 2
WINDOW 39 0 0 Left 0
SYMATTR Value2 AC 1
SYMATTR InstName V3
SYMATTR Value ""
TEXT -240 424 Left 2 !.ac dec 100 1 100k
