Version 4
SHEET 1 880 680
WIRE 384 -112 176 -112
WIRE 208 -48 80 -48
WIRE 384 -16 384 -112
WIRE 176 112 176 -112
WIRE -112 128 -192 128
WIRE 80 128 80 -48
WIRE 80 128 -32 128
WIRE 144 128 80 128
WIRE 288 144 288 -48
WIRE 288 144 208 144
WIRE 384 144 384 64
WIRE 560 144 384 144
WIRE 144 160 80 160
WIRE 560 160 560 144
WIRE -192 288 -192 128
WIRE 384 288 384 144
WIRE -192 496 -192 368
WIRE 80 496 80 160
WIRE 176 496 176 176
WIRE 384 496 384 368
WIRE 384 496 176 496
FLAG 560 160 0
FLAG 80 496 0
FLAG -192 496 0
SYMBOL OpAmps\\OP747 176 80 R0
SYMATTR InstName U1
SYMBOL voltage 384 -32 R0
SYMATTR InstName V1
SYMATTR Value 50
SYMBOL voltage 384 272 R0
SYMATTR InstName V2
SYMATTR Value 50
SYMBOL res -16 112 R90
WINDOW 0 0 56 VBottom 2
WINDOW 3 32 56 VTop 2
SYMATTR InstName R1
SYMATTR Value 1k
SYMBOL res 304 -64 R90
WINDOW 0 0 56 VBottom 2
WINDOW 3 32 56 VTop 2
SYMATTR InstName R2
SYMATTR Value 10k
SYMBOL voltage -192 272 R0
WINDOW 3 24 152 Left 2
WINDOW 123 24 124 Left 2
WINDOW 39 0 0 Left 0
SYMATTR InstName V3
SYMATTR Value SINE(0 1 1k)
SYMATTR Value2 AC 1
TEXT -226 520 Left 2 !.tran 3m
