Version 4
SHEET 1 880 680
WIRE 0 -160 -112 -160
WIRE -112 -96 -112 -160
WIRE 0 -96 0 -160
WIRE 480 -96 192 -96
WIRE 480 -48 480 -96
WIRE 0 0 0 -16
WIRE 256 0 0 0
WIRE 352 0 336 0
WIRE 192 96 192 -96
WIRE 0 112 0 0
WIRE 160 112 0 112
WIRE 352 128 352 0
WIRE 352 128 224 128
WIRE 480 128 480 32
WIRE 624 128 480 128
WIRE 160 144 0 144
WIRE 624 144 624 128
WIRE 480 272 480 128
WIRE 0 288 0 144
WIRE 0 432 0 368
WIRE 192 432 192 160
WIRE 480 432 480 352
WIRE 480 432 192 432
FLAG 0 432 0
FLAG -112 -96 0
FLAG 624 144 0
SYMBOL OpAmps\\OP747 192 64 R0
SYMATTR InstName U1
SYMBOL voltage 480 -64 R0
SYMATTR InstName V1
SYMATTR Value 50
SYMBOL voltage 480 256 R0
SYMATTR InstName V2
SYMATTR Value 50
SYMBOL voltage 0 272 R0
WINDOW 123 24 124 Left 2
WINDOW 39 0 0 Left 0
SYMATTR InstName V3
SYMATTR Value ""
SYMATTR Value2 AC 1
SYMBOL res -16 -112 R0
SYMATTR InstName R1
SYMATTR Value 1k
SYMBOL res 352 -16 R90
WINDOW 0 0 56 VBottom 2
WINDOW 3 32 56 VTop 2
SYMATTR InstName R2
SYMATTR Value 10k
TEXT -132 456 Left 2 !.ac dec 10 1 100k
