Version 4
SHEET 1 880 680
WIRE 704 -304 512 -304
WIRE 512 -272 512 -304
WIRE 704 -256 704 -304
WIRE 512 -144 512 -192
WIRE 512 32 512 -64
WIRE 240 80 80 80
WIRE 448 80 320 80
WIRE 80 128 80 80
WIRE 80 288 80 208
WIRE 512 288 512 128
WIRE 512 288 80 288
WIRE 512 352 512 288
FLAG 704 -256 0
FLAG 512 352 0
SYMBOL voltage 80 112 R0
SYMATTR InstName V1
SYMATTR Value 0
SYMBOL res 336 64 R90
WINDOW 0 0 56 VBottom 2
WINDOW 3 32 56 VTop 2
SYMATTR InstName R1
SYMATTR Value 10k
SYMBOL npn 448 32 R0
SYMATTR InstName Q1
SYMBOL res 496 -160 R0
SYMATTR InstName R2
SYMATTR Value 1k
SYMBOL voltage 512 -176 R180
WINDOW 0 24 96 Left 2
WINDOW 3 24 16 Left 2
SYMATTR InstName V2
SYMATTR Value 5
TEXT 46 376 Left 2 !.dc V1 0 5 0.01
