Version 4
SHEET 1 880 680
WIRE 176 64 16 64
WIRE 416 64 256 64
WIRE 16 128 16 64
WIRE 416 144 416 64
WIRE 16 256 16 208
WIRE 224 256 16 256
WIRE 416 256 416 208
WIRE 416 256 224 256
WIRE 224 288 224 256
FLAG 224 288 0
FLAG 416 64 out
FLAG 16 64 in
SYMBOL voltage 16 112 R0
SYMATTR InstName V1
SYMATTR Value 10
SYMBOL res 272 48 R90
WINDOW 0 0 56 VBottom 2
WINDOW 3 32 56 VTop 2
SYMATTR InstName R1
SYMATTR Value 100
SYMBOL diode 400 144 R0
SYMATTR InstName D1
SYMATTR Value 1N4148
TEXT -176 272 Left 2 !.step temp list -75 0 25 125
TEXT -178 312 Left 2 !.dc V1 0 1 0.01
