Version 4
SHEET 1 880 680
WIRE 128 64 0 64
WIRE 336 64 208 64
WIRE 0 112 0 64
WIRE 336 112 336 64
WIRE 0 272 0 192
WIRE 176 272 0 272
WIRE 336 272 336 176
WIRE 336 272 176 272
WIRE 176 304 176 272
FLAG 176 304 0
SYMBOL res 224 48 R90
WINDOW 0 0 56 VBottom 2
WINDOW 3 32 56 VTop 2
SYMATTR InstName R1
SYMATTR Value 1k
SYMBOL cap 320 112 R0
SYMATTR InstName C1
SYMATTR Value 0.1µ
SYMBOL voltage 0 96 R0
WINDOW 123 0 0 Left 0
WINDOW 39 0 0 Left 0
SYMATTR InstName V1
SYMATTR Value SINE(0 10 1k)
TEXT -34 328 Left 2 !.tran 3m
