Version 4
SHEET 1 1628 680
WIRE 608 -80 352 -80
WIRE 352 -16 352 -80
WIRE 304 0 288 0
WIRE 608 128 608 -80
WIRE 288 160 288 0
WIRE 288 160 128 160
WIRE 352 160 352 80
WIRE 432 160 352 160
WIRE 128 176 128 160
WIRE 352 256 352 160
WIRE 288 336 288 160
WIRE 304 336 288 336
WIRE 128 432 128 256
WIRE 352 432 352 352
WIRE 352 432 128 432
WIRE 608 432 608 208
WIRE 608 432 352 432
WIRE 352 448 352 432
FLAG 432 160 Vout
FLAG 352 448 0
SYMBOL voltage 128 160 R0
WINDOW 123 0 0 Left 0
WINDOW 39 0 0 Left 0
SYMATTR InstName Vin
SYMATTR Value 5
SYMBOL pmos 304 80 M180
SYMATTR InstName M1
SYMBOL nmos 304 256 R0
SYMATTR InstName M2
SYMBOL voltage 608 112 R0
SYMATTR InstName Vdd
SYMATTR Value 5
TEXT 94 472 Left 2 !.dc Vin 0 5 0.01
TEXT 896 -16 Left 2 !.MODEL NMOS NMOS LEVEL = 3\n+ TOX =200E-10\n+ PHI =0.7\n+ UO =650\n+ KP =120E-6\n+ RSH =0\n+ XJ =500E-9\n+ CGDO =200E-12\n+ CJ =400E-6\n+ CJSW =300E-12\n+NSUB =1E17  VTO =1  ETA = 3.0E-6  VMAX =1E5  NFS =1E12\n+LD = 100E-9   CGSO =200E-12   PB =1  MJSW =0.5\n+GAMMA = 0   DELTA = 3.0   THETA = 0.1\n+KAPPA = 0.3   TPG =1   CGBO =1E-10   MJ =0.5
TEXT -608 8 Left 2 !.MODEL PMOS PMOS LEVEL = 3\n+ TOX =200E-10\n+ PHI =0.7\n+ UO =250\n+ KP =40E-6\n+ RSH =0\n+ XJ =500E-9\n+ CGDO =200E-12\n+ CJ =400E-6\n+ CJSW =300E-12\n+NSUB =1E17  VTO =-1  ETA = 0  VMAX =5E4  NFS =1E12\n+LD = 100E-9   CGSO =200E-12   PB =1  MJSW =0.5\n+GAMMA = 0.6   DELTA = 0.1   THETA = 0.1\n+KAPPA = 1   TPG =-1   CGBO =1E-10   MJ =0.5
